file 10613 1590673265                                           
version 2
run test_provided-0-20200528-15:41:00-8484
attr configname test_provided
attr datetime 20200528-15:41:00
attr experiment test_provided
attr inifile omnetpp.ini
attr iterationvars ""
attr iterationvarsf ""
attr measurement ""
attr network ScenarioTest_Cost
attr processid 8484
attr repetition 0
attr replication #0
attr resultdir results
attr runnumber 0
attr seedset 0
param ScenarioTest_Cost.userList "\"1 User_PD Regular Slai05d02c03 2 1 AppDataIntensive 1 1 VM_medium 1 2 \""
param ScenarioTest_Cost.dataCentersList "\"1 DataCenter_A 1 1 1 Rack_A 1 1 Node_A 500 4.0 4 60000 1 0 Rack_B 1 4 Node_B 2000 16.0 2 52500 \""
param ScenarioTest_Cost.appList "\"2 LocalApplication AppCPUIntensive 6 inputDataSize int MiB 10 outputDataSize int MiB 5 inputFile string - /inputFile_0.dat outputFile string - /outputFile_0.dat MIs int - 500000 iterations int - 5 LocalApplication AppDataIntensive 6 inputDataSize int MiB 50 outputDataSize int MiB 75 inputFile string - /inputFile_0.dat outputFile string - /outputFile_0.dat MIs int - 1000 iterations int - 5 \""
param ScenarioTest_Cost.vmList "\"10 VM_4xlarge 23.0 16 16.0 1000.0 64.0 VM_2xlarge 23.0 8 8.0 1000.0 32.0 VM_xlarge 23.0 4 4.0 1000.0 16.0 VM_large 23.0 4 4.0 1000.0 8.0 VM_medium 15.0 2 2.0 500.0 4.0 VM_small 15.0 1 1.0 250.0 2.0 VM_micro 15.0 1 1.0 100.0 1.0 VM_nanoHD 15.0 1 1.0 500.0 0.5 VM_nanoRAM 15.0 1 1.0 100.0 2.0 VM_nano 15.0 1 1.0 100.0 0.5 \""
param ScenarioTest_Cost.slaList "\"20 Slai0d0c0 10 VM_4xlarge 0.92 0.0 0.0 0.0 VM_2xlarge 0.46 0.0 0.0 0.0 VM_xlarge 0.23 0.0 0.0 0.0 VM_large 0.12 0.0 0.0 0.0 VM_medium 0.05 0.0 0.0 0.0 VM_small 0.03 0.0 0.0 0.0 VM_micro 0.02 0.0 0.0 0.0 VM_nanoHD 0.01 0.0 0.0 0.0 VM_nanoRAM 0.01 0.0 0.0 0.0 VM_nano 0.01 0.0 0.0 0.0 Slai05d0c0 10 VM_4xlarge 0.92 0.5 0.0 0.0 VM_2xlarge 0.46 0.5 0.0 0.0 VM_xlarge 0.23 0.5 0.0 0.0 VM_large 0.12 0.5 0.0 0.0 VM_medium 0.05 0.5 0.0 0.0 VM_small 0.03 0.5 0.0 0.0 VM_micro 0.02 0.5 0.0 0.0 VM_nanoHD 0.01 0.5 0.0 0.0 VM_nanoRAM 0.01 0.5 0.0 0.0 VM_nano 0.01 0.5 0.0 0.0 Slai0d02c0 10 VM_4xlarge 0.92 0.0 0.2 0.0 VM_2xlarge 0.46 0.0 0.2 0.0 VM_xlarge 0.23 0.0 0.2 0.0 VM_large 0.12 0.0 0.2 0.0 VM_medium 0.05 0.0 0.2 0.0 VM_small 0.03 0.0 0.2 0.0 VM_micro 0.02 0.0 0.2 0.0 VM_nanoHD 0.01 0.0 0.2 0.0 VM_nanoRAM 0.01 0.0 0.2 0.0 VM_nano 0.01 0.0 0.2 0.0 Slai0d0c01 10 VM_4xlarge 0.92 0.0 0.0 0.1 VM_2xlarge 0.46 0.0 0.0 0.1 VM_xlarge 0.23 0.0 0.0 0.1 VM_large 0.12 0.0 0.0 0.1 VM_medium 0.05 0.0 0.0 0.1 VM_small 0.03 0.0 0.0 0.1 VM_micro 0.02 0.0 0.0 0.1 VM_nanoHD 0.01 0.0 0.0 0.1 VM_nanoRAM 0.01 0.0 0.0 0.1 VM_nano 0.01 0.0 0.0 0.1 Slai05d02c0 10 VM_4xlarge 0.92 0.5 0.2 0.0 VM_2xlarge 0.46 0.5 0.2 0.0 VM_xlarge 0.23 0.5 0.2 0.0 VM_large 0.12 0.5 0.2 0.0 VM_medium 0.05 0.5 0.2 0.0 VM_small 0.03 0.5 0.2 0.0 VM_micro 0.02 0.5 0.2 0.0 VM_nanoHD 0.01 0.5 0.2 0.0 VM_nanoRAM 0.01 0.5 0.2 0.0 VM_nano 0.01 0.5 0.2 0.0 Slai05d0c01 10 VM_4xlarge 0.92 0.5 0.0 0.1 VM_2xlarge 0.46 0.5 0.0 0.1 VM_xlarge 0.23 0.5 0.0 0.1 VM_large 0.12 0.5 0.0 0.1 VM_medium 0.05 0.5 0.0 0.1 VM_small 0.03 0.5 0.0 0.1 VM_micro 0.02 0.5 0.0 0.1 VM_nanoHD 0.01 0.5 0.0 0.1 VM_nanoRAM 0.01 0.5 0.0 0.1 VM_nano 0.01 0.5 0.0 0.1 Slai05d02c01 10 VM_4xlarge 0.92 0.5 0.2 0.1 VM_2xlarge 0.46 0.5 0.2 0.1 VM_xlarge 0.23 0.5 0.2 0.1 VM_large 0.12 0.5 0.2 0.1 VM_medium 0.05 0.5 0.2 0.1 VM_small 0.03 0.5 0.2 0.1 VM_micro 0.02 0.5 0.2 0.1 VM_nanoHD 0.01 0.5 0.2 0.1 VM_nanoRAM 0.01 0.5 0.2 0.1 VM_nano 0.01 0.5 0.2 0.1 Slai0d02c01 10 VM_4xlarge 0.92 0.0 0.2 0.1 VM_2xlarge 0.46 0.0 0.2 0.1 VM_xlarge 0.23 0.0 0.2 0.1 VM_large 0.12 0.0 0.2 0.1 VM_medium 0.05 0.0 0.2 0.1 VM_small 0.03 0.0 0.2 0.1 VM_micro 0.02 0.0 0.2 0.1 VM_nanoHD 0.01 0.0 0.2 0.1 VM_nanoRAM 0.01 0.0 0.2 0.1 VM_nano 0.01 0.0 0.2 0.1 Slai05d02c02 10 VM_4xlarge 0.92 0.5 0.2 0.2 VM_2xlarge 0.46 0.5 0.2 0.2 VM_xlarge 0.23 0.5 0.2 0.2 VM_large 0.12 0.5 0.2 0.2 VM_medium 0.05 0.5 0.2 0.2 VM_small 0.03 0.5 0.2 0.2 VM_micro 0.02 0.5 0.2 0.2 VM_nanoHD 0.01 0.5 0.2 0.2 VM_nanoRAM 0.01 0.5 0.2 0.2 VM_nano 0.01 0.5 0.2 0.2 Slai05d02c03 10 VM_4xlarge 0.92 0.5 0.2 0.3 VM_2xlarge 0.46 0.5 0.2 0.3 VM_xlarge 0.23 0.5 0.2 0.3 VM_large 0.12 0.5 0.2 0.3 VM_medium 0.05 0.5 0.2 0.3 VM_small 0.03 0.5 0.2 0.3 VM_micro 0.02 0.5 0.2 0.3 VM_nanoHD 0.01 0.5 0.2 0.3 VM_nanoRAM 0.01 0.5 0.2 0.3 VM_nano 0.01 0.5 0.2 0.3 Slai05d02c04 10 VM_4xlarge 0.92 0.5 0.2 0.4 VM_2xlarge 0.46 0.5 0.2 0.4 VM_xlarge 0.23 0.5 0.2 0.4 VM_large 0.12 0.5 0.2 0.4 VM_medium 0.05 0.5 0.2 0.4 VM_small 0.03 0.5 0.2 0.4 VM_micro 0.02 0.5 0.2 0.4 VM_nanoHD 0.01 0.5 0.2 0.4 VM_nanoRAM 0.01 0.5 0.2 0.4 VM_nano 0.01 0.5 0.2 0.4 Slai05d05c01 10 VM_4xlarge 0.92 0.5 0.5 0.1 VM_2xlarge 0.46 0.5 0.5 0.1 VM_xlarge 0.23 0.5 0.5 0.1 VM_large 0.12 0.5 0.5 0.1 VM_medium 0.05 0.5 0.5 0.1 VM_small 0.03 0.5 0.5 0.1 VM_micro 0.02 0.5 0.5 0.1 VM_nanoHD 0.01 0.5 0.5 0.1 VM_nanoRAM 0.01 0.5 0.5 0.1 VM_nano 0.01 0.5 0.5 0.1 Slai02d02c01 10 VM_4xlarge 0.92 0.2 0.2 0.1 VM_2xlarge 0.46 0.2 0.2 0.1 VM_xlarge 0.23 0.2 0.2 0.1 VM_large 0.12 0.2 0.2 0.1 VM_medium 0.05 0.2 0.2 0.1 VM_small 0.03 0.2 0.2 0.1 VM_micro 0.02 0.2 0.2 0.1 VM_nanoHD 0.01 0.2 0.2 0.1 VM_nanoRAM 0.01 0.2 0.2 0.1 VM_nano 0.01 0.2 0.2 0.1 Slai05d015c01 10 VM_4xlarge 0.92 0.5 0.15 0.1 VM_2xlarge 0.46 0.5 0.15 0.1 VM_xlarge 0.23 0.5 0.15 0.1 VM_large 0.12 0.5 0.15 0.1 VM_medium 0.05 0.5 0.15 0.1 VM_small 0.03 0.5 0.15 0.1 VM_micro 0.02 0.5 0.15 0.1 VM_nanoHD 0.01 0.5 0.15 0.1 VM_nanoRAM 0.01 0.5 0.15 0.1 VM_nano 0.01 0.5 0.15 0.1 Slai05d045c01 10 VM_4xlarge 0.92 0.5 0.45 0.1 VM_2xlarge 0.46 0.5 0.45 0.1 VM_xlarge 0.23 0.5 0.45 0.1 VM_large 0.12 0.5 0.45 0.1 VM_medium 0.05 0.5 0.45 0.1 VM_small 0.03 0.5 0.45 0.1 VM_micro 0.02 0.5 0.45 0.1 VM_nanoHD 0.01 0.5 0.45 0.1 VM_nanoRAM 0.01 0.5 0.45 0.1 VM_nano 0.01 0.5 0.45 0.1 Slai05d03c01 10 VM_4xlarge 0.92 0.5 0.3 0.1 VM_2xlarge 0.46 0.5 0.3 0.1 VM_xlarge 0.23 0.5 0.3 0.1 VM_large 0.12 0.5 0.3 0.1 VM_medium 0.05 0.5 0.3 0.1 VM_small 0.03 0.5 0.3 0.1 VM_micro 0.02 0.5 0.3 0.1 VM_nanoHD 0.01 0.5 0.3 0.1 VM_nanoRAM 0.01 0.5 0.3 0.1 VM_nano 0.01 0.5 0.3 0.1 Slai015d02c01 10 VM_4xlarge 0.92 0.15 0.2 0.1 VM_2xlarge 0.46 0.15 0.2 0.1 VM_xlarge 0.23 0.15 0.2 0.1 VM_large 0.12 0.15 0.2 0.1 VM_medium 0.05 0.15 0.2 0.1 VM_small 0.03 0.15 0.2 0.1 VM_micro 0.02 0.15 0.2 0.1 VM_nanoHD 0.01 0.15 0.2 0.1 VM_nanoRAM 0.01 0.15 0.2 0.1 VM_nano 0.01 0.15 0.2 0.1 Slai045d02c01 10 VM_4xlarge 0.92 0.45 0.2 0.1 VM_2xlarge 0.46 0.45 0.2 0.1 VM_xlarge 0.23 0.45 0.2 0.1 VM_large 0.12 0.45 0.2 0.1 VM_medium 0.05 0.45 0.2 0.1 VM_small 0.03 0.45 0.2 0.1 VM_micro 0.02 0.45 0.2 0.1 VM_nanoHD 0.01 0.45 0.2 0.1 VM_nanoRAM 0.01 0.45 0.2 0.1 VM_nano 0.01 0.45 0.2 0.1 Slai03d02c01 10 VM_4xlarge 0.92 0.3 0.2 0.1 VM_2xlarge 0.46 0.3 0.2 0.1 VM_xlarge 0.23 0.3 0.2 0.1 VM_large 0.12 0.3 0.2 0.1 VM_medium 0.05 0.3 0.2 0.1 VM_small 0.03 0.3 0.2 0.1 VM_micro 0.02 0.3 0.2 0.1 VM_nanoHD 0.01 0.3 0.2 0.1 VM_nanoRAM 0.01 0.3 0.2 0.1 VM_nano 0.01 0.3 0.2 0.1 Slai05d02c015 10 VM_4xlarge 0.92 0.5 0.2 0.15 VM_2xlarge 0.46 0.5 0.2 0.15 VM_xlarge 0.23 0.5 0.2 0.15 VM_large 0.12 0.5 0.2 0.15 VM_medium 0.05 0.5 0.2 0.15 VM_small 0.03 0.5 0.2 0.15 VM_micro 0.02 0.5 0.2 0.15 VM_nanoHD 0.01 0.5 0.2 0.15 VM_nanoRAM 0.01 0.5 0.2 0.15 VM_nano 0.01 0.5 0.2 0.15 \""
param ScenarioTest_Cost.dataCentersList "\"1 DataCenter_A 10 1 4 Rack_A 4 8 Node_A 2000 64.0 4 60000 1 1 Rack_B 1 4 Node_B 2000 16.0 2 52500 \""
param ScenarioTest_Cost.userGenerator.intervalBetweenUsers true
param ScenarioTest_Cost.userGenerator.distribution exponential(60.5s)
param ScenarioTest_Cost.userGenerator.maxStartTime_t1 100000000
param ScenarioTest_Cost.userGenerator.nRentTime_t2 10000
param ScenarioTest_Cost.userGenerator.maxSubTime_t3 55000
param ScenarioTest_Cost.userGenerator.maxSubscriptionTime_t4 7200
param ScenarioTest_Cost.userGenerator.offerAcceptanceRate 0.0
param ScenarioTest_Cost.userGenerator.offerCostIncrease 0.0
param ScenarioTest_Cost.dc_DataCenter_A_000.dcManager.dataCenterConfig "\"DataCenter_A 2 2 Rack_A 1 10 Node_A 500 4.0 4 60000 2 Rack_B 1 8 Node_B 1000 1.0 4 60000 0\""
param ScenarioTest_Cost.dc_DataCenter_A_000.rackCmp_Rack_A_*.channelType "\"DataCenterEth1G_channel\""
param ScenarioTest_Cost.dc_DataCenter_A_000.rackCmp_Rack_A_*.numBoards 4
param ScenarioTest_Cost.dc_DataCenter_A_000.rackCmp_Rack_A_*.bladesPerBoard 8
param ScenarioTest_Cost.dc_DataCenter_A_000.rackCmp_Rack_A_*.board[*].blade[*].staticAppAssignment false
param ScenarioTest_Cost.dc_DataCenter_A_000.rackCmp_Rack_A_*.board[*].blade[*].isVirtualHardware true
param ScenarioTest_Cost.dc_DataCenter_A_000.rackCmp_Rack_A_*.board[*].blade[*].maxUsers 4
param ScenarioTest_Cost.dc_DataCenter_A_000.rackCmp_Rack_A_*.board[*].blade[*].maxVMs 4
param ScenarioTest_Cost.dc_DataCenter_A_000.rackCmp_Rack_A_*.board[*].blade[*].numCpuCores 4
param ScenarioTest_Cost.dc_DataCenter_A_000.rackCmp_Rack_A_*.board[*].blade[*].cpu.cpuCore[*].speed 60000
param ScenarioTest_Cost.dc_DataCenter_A_000.rackCmp_Rack_A_*.board[*].blade[*].cpu.cpuCore[*].tick 0.01s
param ScenarioTest_Cost.dc_DataCenter_A_000.rackCmp_Rack_A_*.board[*].blade[*].appsVectors[*].appModule[*].userAppName "\"DummyApplication\""
param ScenarioTest_Cost.dc_DataCenter_A_000.rackSto_Rack_B_*.channelType "\"DataCenterEth1G_channel\""
param ScenarioTest_Cost.dc_DataCenter_A_000.rackSto_Rack_B_*.numBoards 1
param ScenarioTest_Cost.dc_DataCenter_A_000.rackSto_Rack_B_*.bladesPerBoard 4
param ScenarioTest_Cost.dc_DataCenter_A_000.rackSto_Rack_B_*.board[*].blade[*].staticAppAssignment false
param ScenarioTest_Cost.dc_DataCenter_A_000.rackSto_Rack_B_*.board[*].blade[*].isVirtualHardware true
param ScenarioTest_Cost.dc_DataCenter_A_000.rackSto_Rack_B_*.board[*].blade[*].maxUsers 2
param ScenarioTest_Cost.dc_DataCenter_A_000.rackSto_Rack_B_*.board[*].blade[*].maxVMs 2
param ScenarioTest_Cost.dc_DataCenter_A_000.rackSto_Rack_B_*.board[*].blade[*].numCpuCores 2
param ScenarioTest_Cost.dc_DataCenter_A_000.rackSto_Rack_B_*.board[*].blade[*].cpu.cpuCore[*].speed 52500
param ScenarioTest_Cost.dc_DataCenter_A_000.rackSto_Rack_B_*.board[*].blade[*].cpu.cpuCore[*].tick 0.01s
param ScenarioTest_Cost.dc_DataCenter_A_000.rackSto_Rack_B_*.board[*].blade[*].appsVectors[*].appModule[*].userAppName "\"DummyApplication\""

vector 0 ScenarioTest_Cost.userGenerator request:vector ETV
vector 1 ScenarioTest_Cost.userGenerator response:vector ETV
vector 2 ScenarioTest_Cost.userGenerator subscribeNoip:vector ETV
vector 3 ScenarioTest_Cost.userGenerator timeOut:vector ETV
0	10475 32 4 8 5 53.150407526229 2 0 1 1 1
1	10507 33 6 10 5 53.150407526229 2 0 1 1 1
2	10540 33 6 10 5 53.150407526229 2 0 1 1 1
3	10573 38 13 15 7205 7253.15040752623 2 0 1 1 1

